new loadshape.curve_load_5BT npts=24, interval=1 mult=(0.32000,0.30000,0.29000,0.28000,0.26000,0.25000,0.23000,0.22000,0.21000,0.20000,0.80000,0.85000,0.88000,0.90000,0.60000,0.40000,0.70000,0.80000,0.90000,0.95000,1.00000,0.85000,0.50000,0.40000)
new loadshape.curve_load_6BT npts=24, interval=1 mult=(0.32000,0.30000,0.29000,0.28000,0.26000,0.25000,0.23000,0.22000,0.21000,0.20000,0.80000,0.85000,0.88000,0.90000,0.60000,0.40000,0.70000,0.80000,0.90000,0.95000,1.00000,0.85000,0.50000,0.40000)
new loadshape.curve_load_7BT npts=24, interval=1 mult=(0.32000,0.30000,0.29000,0.28000,0.26000,0.25000,0.23000,0.22000,0.21000,0.20000,0.80000,0.85000,0.88000,0.90000,0.60000,0.40000,0.70000,0.80000,0.90000,0.95000,1.00000,0.85000,0.50000,0.40000)
new loadshape.curve_load_8BT npts=24, interval=1 mult=(0.32000,0.30000,0.29000,0.28000,0.26000,0.25000,0.23000,0.22000,0.21000,0.20000,0.80000,0.85000,0.88000,0.90000,0.60000,0.40000,0.70000,0.80000,0.90000,0.95000,1.00000,0.85000,0.50000,0.40000)
new loadshape.curve_load_9BT npts=24, interval=1 mult=(0.32000,0.30000,0.29000,0.28000,0.26000,0.25000,0.23000,0.22000,0.21000,0.20000,0.80000,0.85000,0.88000,0.90000,0.60000,0.40000,0.70000,0.80000,0.90000,0.95000,1.00000,0.85000,0.50000,0.40000)
new loadshape.curve_load_10BT npts=24, interval=1 mult=(0.32000,0.30000,0.29000,0.28000,0.26000,0.25000,0.23000,0.22000,0.21000,0.20000,0.80000,0.85000,0.88000,0.90000,0.60000,0.40000,0.70000,0.80000,0.90000,0.95000,1.00000,0.85000,0.50000,0.40000)
new loadshape.curve_load_11BT npts=24, interval=1 mult=(0.32000,0.30000,0.29000,0.28000,0.26000,0.25000,0.23000,0.22000,0.21000,0.20000,0.80000,0.85000,0.88000,0.90000,0.60000,0.40000,0.70000,0.80000,0.90000,0.95000,1.00000,0.85000,0.50000,0.40000)
new loadshape.curve_load_12BT npts=24, interval=1 mult=(0.32000,0.30000,0.29000,0.28000,0.26000,0.25000,0.23000,0.22000,0.21000,0.20000,0.80000,0.85000,0.88000,0.90000,0.60000,0.40000,0.70000,0.80000,0.90000,0.95000,1.00000,0.85000,0.50000,0.40000)
new loadshape.curve_load_13BT npts=24, interval=1 mult=(0.32000,0.30000,0.29000,0.28000,0.26000,0.25000,0.23000,0.22000,0.21000,0.20000,0.80000,0.85000,0.88000,0.90000,0.60000,0.40000,0.70000,0.80000,0.90000,0.95000,1.00000,0.85000,0.50000,0.40000)
new loadshape.curve_load_15BT npts=24, interval=1 mult=(0.32000,0.30000,0.29000,0.28000,0.26000,0.25000,0.23000,0.22000,0.21000,0.20000,0.80000,0.85000,0.88000,0.90000,0.60000,0.40000,0.70000,0.80000,0.90000,0.95000,1.00000,0.85000,0.50000,0.40000)
new loadshape.curve_load_16BT npts=24, interval=1 mult=(0.32000,0.30000,0.29000,0.28000,0.26000,0.25000,0.23000,0.22000,0.21000,0.20000,0.80000,0.85000,0.88000,0.90000,0.60000,0.40000,0.70000,0.80000,0.90000,0.95000,1.00000,0.85000,0.50000,0.40000)
new loadshape.curve_load_17BT npts=24, interval=1 mult=(0.32000,0.30000,0.29000,0.28000,0.26000,0.25000,0.23000,0.22000,0.21000,0.20000,0.80000,0.85000,0.88000,0.90000,0.60000,0.40000,0.70000,0.80000,0.90000,0.95000,1.00000,0.85000,0.50000,0.40000)
new loadshape.curve_load_19BT npts=24, interval=1 mult=(0.32000,0.30000,0.29000,0.28000,0.26000,0.25000,0.23000,0.22000,0.21000,0.20000,0.80000,0.85000,0.88000,0.90000,0.60000,0.40000,0.70000,0.80000,0.90000,0.95000,1.00000,0.85000,0.50000,0.40000)
new loadshape.curve_load_20BT npts=24, interval=1 mult=(0.32000,0.30000,0.29000,0.28000,0.26000,0.25000,0.23000,0.22000,0.21000,0.20000,0.80000,0.85000,0.88000,0.90000,0.60000,0.40000,0.70000,0.80000,0.90000,0.95000,1.00000,0.85000,0.50000,0.40000)
new loadshape.curve_load_21BT npts=24, interval=1 mult=(0.32000,0.30000,0.29000,0.28000,0.26000,0.25000,0.23000,0.22000,0.21000,0.20000,0.80000,0.85000,0.88000,0.90000,0.60000,0.40000,0.70000,0.80000,0.90000,0.95000,1.00000,0.85000,0.50000,0.40000)
new loadshape.curve_load_23BT npts=24, interval=1 mult=(0.32000,0.30000,0.29000,0.28000,0.26000,0.25000,0.23000,0.22000,0.21000,0.20000,0.80000,0.85000,0.88000,0.90000,0.60000,0.40000,0.70000,0.80000,0.90000,0.95000,1.00000,0.85000,0.50000,0.40000)
new loadshape.curve_load_25BT npts=24, interval=1 mult=(0.32000,0.30000,0.29000,0.28000,0.26000,0.25000,0.23000,0.22000,0.21000,0.20000,0.80000,0.85000,0.88000,0.90000,0.60000,0.40000,0.70000,0.80000,0.90000,0.95000,1.00000,0.85000,0.50000,0.40000)
new loadshape.curve_load_26BT npts=24, interval=1 mult=(0.32000,0.30000,0.29000,0.28000,0.26000,0.25000,0.23000,0.22000,0.21000,0.20000,0.80000,0.85000,0.88000,0.90000,0.60000,0.40000,0.70000,0.80000,0.90000,0.95000,1.00000,0.85000,0.50000,0.40000)
new loadshape.curve_load_27BT npts=24, interval=1 mult=(0.29000,0.30000,0.31000,0.31000,0.31000,0.34000,0.35000,0.80000,0.92000,0.96000,0.95000,1.00000,0.98000,0.94000,0.89000,0.80000,0.50000,0.45000,0.42000,0.40000,0.40000,0.41000,0.42000,0.35000)
new loadshape.curve_load_28BT npts=24, interval=1 mult=(0.29000,0.30000,0.31000,0.31000,0.31000,0.34000,0.35000,0.80000,0.92000,0.96000,0.95000,1.00000,0.98000,0.94000,0.89000,0.80000,0.50000,0.45000,0.42000,0.40000,0.40000,0.41000,0.42000,0.35000)
new loadshape.curve_load_32BT npts=24, interval=1 mult=(0.29000,0.30000,0.31000,0.31000,0.31000,0.34000,0.35000,0.80000,0.92000,0.96000,0.95000,1.00000,0.98000,0.94000,0.89000,0.80000,0.50000,0.45000,0.42000,0.40000,0.40000,0.41000,0.42000,0.35000)
new loadshape.curve_load_33BT npts=24, interval=1 mult=(0.29000,0.30000,0.31000,0.31000,0.31000,0.34000,0.35000,0.80000,0.92000,0.96000,0.95000,1.00000,0.98000,0.94000,0.89000,0.80000,0.50000,0.45000,0.42000,0.40000,0.40000,0.41000,0.42000,0.35000)
new loadshape.curve_load_34BT npts=24, interval=1 mult=(0.29000,0.30000,0.31000,0.31000,0.31000,0.34000,0.35000,0.80000,0.92000,0.96000,0.95000,1.00000,0.98000,0.94000,0.89000,0.80000,0.50000,0.45000,0.42000,0.40000,0.40000,0.41000,0.42000,0.35000)
new loadshape.curve_load_27eBT npts=24, interval=1 mult=(0.29000,0.30000,0.31000,0.31000,0.31000,0.34000,0.35000,0.80000,0.92000,0.96000,0.95000,1.00000,0.98000,0.94000,0.89000,0.80000,0.50000,0.45000,0.42000,0.40000,0.40000,0.41000,0.42000,0.35000)
new loadshape.curve_load_28eBT npts=24, interval=1 mult=(0.29000,0.30000,0.31000,0.31000,0.31000,0.34000,0.35000,0.80000,0.92000,0.96000,0.95000,1.00000,0.98000,0.94000,0.89000,0.80000,0.50000,0.45000,0.42000,0.40000,0.40000,0.41000,0.42000,0.35000)
new loadshape.curve_load_66BT npts=24, interval=1 mult=(0.29000,0.30000,0.31000,0.31000,0.31000,0.34000,0.35000,0.80000,0.92000,0.96000,0.95000,1.00000,0.98000,0.94000,0.89000,0.80000,0.50000,0.45000,0.42000,0.40000,0.40000,0.41000,0.42000,0.35000)
new loadshape.curve_load_67BT npts=24, interval=1 mult=(0.29000,0.30000,0.31000,0.31000,0.31000,0.34000,0.35000,0.80000,0.92000,0.96000,0.95000,1.00000,0.98000,0.94000,0.89000,0.80000,0.50000,0.45000,0.42000,0.40000,0.40000,0.41000,0.42000,0.35000)
new loadshape.curve_load_68BT npts=24, interval=1 mult=(0.29000,0.30000,0.31000,0.31000,0.31000,0.34000,0.35000,0.80000,0.92000,0.96000,0.95000,1.00000,0.98000,0.94000,0.89000,0.80000,0.50000,0.45000,0.42000,0.40000,0.40000,0.41000,0.42000,0.35000)
new loadshape.curve_load_70BT npts=24, interval=1 mult=(0.29000,0.30000,0.31000,0.31000,0.31000,0.34000,0.35000,0.80000,0.92000,0.96000,0.95000,1.00000,0.98000,0.94000,0.89000,0.80000,0.50000,0.45000,0.42000,0.40000,0.40000,0.41000,0.42000,0.35000)
new loadshape.curve_load_89BT npts=24, interval=1 mult=(0.29000,0.30000,0.31000,0.31000,0.31000,0.34000,0.35000,0.80000,0.92000,0.96000,0.95000,1.00000,0.98000,0.94000,0.89000,0.80000,0.50000,0.45000,0.42000,0.40000,0.40000,0.41000,0.42000,0.35000)
new loadshape.curve_load_90BT npts=24, interval=1 mult=(0.29000,0.30000,0.31000,0.31000,0.31000,0.34000,0.35000,0.80000,0.92000,0.96000,0.95000,1.00000,0.98000,0.94000,0.89000,0.80000,0.50000,0.45000,0.42000,0.40000,0.40000,0.41000,0.42000,0.35000)
new loadshape.curve_load_36BT npts=24, interval=1 mult=(0.32000,0.30000,0.29000,0.28000,0.26000,0.25000,0.23000,0.22000,0.21000,0.20000,0.80000,0.85000,0.88000,0.90000,0.60000,0.40000,0.70000,0.80000,0.90000,0.95000,1.00000,0.85000,0.50000,0.40000)
new loadshape.curve_load_37BT npts=24, interval=1 mult=(0.32000,0.30000,0.29000,0.28000,0.26000,0.25000,0.23000,0.22000,0.21000,0.20000,0.80000,0.85000,0.88000,0.90000,0.60000,0.40000,0.70000,0.80000,0.90000,0.95000,1.00000,0.85000,0.50000,0.40000)
new loadshape.curve_load_38BT npts=24, interval=1 mult=(0.32000,0.30000,0.29000,0.28000,0.26000,0.25000,0.23000,0.22000,0.21000,0.20000,0.80000,0.85000,0.88000,0.90000,0.60000,0.40000,0.70000,0.80000,0.90000,0.95000,1.00000,0.85000,0.50000,0.40000)
new loadshape.curve_load_40BT npts=24, interval=1 mult=(0.32000,0.30000,0.29000,0.28000,0.26000,0.25000,0.23000,0.22000,0.21000,0.20000,0.80000,0.85000,0.88000,0.90000,0.60000,0.40000,0.70000,0.80000,0.90000,0.95000,1.00000,0.85000,0.50000,0.40000)
new loadshape.curve_load_41BT npts=24, interval=1 mult=(0.32000,0.30000,0.29000,0.28000,0.26000,0.25000,0.23000,0.22000,0.21000,0.20000,0.80000,0.85000,0.88000,0.90000,0.60000,0.40000,0.70000,0.80000,0.90000,0.95000,1.00000,0.85000,0.50000,0.40000)
new loadshape.curve_load_42BT npts=24, interval=1 mult=(0.51613,0.31935,0.32000,0.32000,0.31935,0.28387,0.28065,0.46000,0.45000,0.60000,0.59000,0.55000,0.54839,0.50000,0.60000,0.51000,0.61290,0.57000,0.90000,0.96774,0.99000,1.00000,0.85000,0.61290)
new loadshape.curve_load_43BT npts=24, interval=1 mult=(0.51613,0.31935,0.32000,0.32000,0.31935,0.28387,0.28065,0.46000,0.45000,0.60000,0.59000,0.55000,0.54839,0.50000,0.60000,0.51000,0.61290,0.57000,0.90000,0.96774,0.99000,1.00000,0.85000,0.61290)
new loadshape.curve_load_44BT npts=24, interval=1 mult=(0.51613,0.31935,0.32000,0.32000,0.31935,0.28387,0.28065,0.46000,0.45000,0.60000,0.59000,0.55000,0.54839,0.50000,0.60000,0.51000,0.61290,0.57000,0.90000,0.96774,0.99000,1.00000,0.85000,0.61290)
new loadshape.curve_load_48BT npts=24, interval=1 mult=(0.51613,0.31935,0.32000,0.32000,0.31935,0.28387,0.28065,0.46000,0.45000,0.60000,0.59000,0.55000,0.54839,0.50000,0.60000,0.51000,0.61290,0.57000,0.90000,0.96774,0.99000,1.00000,0.85000,0.61290)
new loadshape.curve_load_50BT npts=24, interval=1 mult=(0.51613,0.31935,0.32000,0.32000,0.31935,0.28387,0.28065,0.46000,0.45000,0.60000,0.59000,0.55000,0.54839,0.50000,0.60000,0.51000,0.61290,0.57000,0.90000,0.96774,0.99000,1.00000,0.85000,0.61290)
new loadshape.curve_load_51BT npts=24, interval=1 mult=(0.51613,0.31935,0.32000,0.32000,0.31935,0.28387,0.28065,0.46000,0.45000,0.60000,0.59000,0.55000,0.54839,0.50000,0.60000,0.51000,0.61290,0.57000,0.90000,0.96774,0.99000,1.00000,0.85000,0.61290)
new loadshape.curve_load_53BT npts=24, interval=1 mult=(0.51613,0.31935,0.32000,0.32000,0.31935,0.28387,0.28065,0.46000,0.45000,0.60000,0.59000,0.55000,0.54839,0.50000,0.60000,0.51000,0.61290,0.57000,0.90000,0.96774,0.99000,1.00000,0.85000,0.61290)
new loadshape.curve_load_54BT npts=24, interval=1 mult=(0.51613,0.31935,0.32000,0.32000,0.31935,0.28387,0.28065,0.46000,0.45000,0.60000,0.59000,0.55000,0.54839,0.50000,0.60000,0.51000,0.61290,0.57000,0.90000,0.96774,0.99000,1.00000,0.85000,0.61290)
new loadshape.curve_load_55BT npts=24, interval=1 mult=(0.32000,0.30000,0.29000,0.28000,0.26000,0.25000,0.23000,0.22000,0.21000,0.20000,0.80000,0.85000,0.88000,0.90000,0.60000,0.40000,0.70000,0.80000,0.90000,0.95000,1.00000,0.85000,0.50000,0.40000)
new loadshape.curve_load_56BT npts=24, interval=1 mult=(0.32000,0.30000,0.29000,0.28000,0.26000,0.25000,0.23000,0.22000,0.21000,0.20000,0.80000,0.85000,0.88000,0.90000,0.60000,0.40000,0.70000,0.80000,0.90000,0.95000,1.00000,0.85000,0.50000,0.40000)
new loadshape.curve_load_57BT npts=24, interval=1 mult=(0.32000,0.30000,0.29000,0.28000,0.26000,0.25000,0.23000,0.22000,0.21000,0.20000,0.80000,0.85000,0.88000,0.90000,0.60000,0.40000,0.70000,0.80000,0.90000,0.95000,1.00000,0.85000,0.50000,0.40000)
new loadshape.curve_load_58BT npts=24, interval=1 mult=(0.32000,0.30000,0.29000,0.28000,0.26000,0.25000,0.23000,0.22000,0.21000,0.20000,0.80000,0.85000,0.88000,0.90000,0.60000,0.40000,0.70000,0.80000,0.90000,0.95000,1.00000,0.85000,0.50000,0.40000)
